Test_Network/network_26/Feeder_3/Lines.txt
New Line.LINE29 Bus1=29 Bus2=30 phases=3 Linecode=4c_.25 Length=0.62935 Units=m
New Line.LINE30 Bus1=29 Bus2=31 phases=3 Linecode=4c_.25 Length=0.62935 Units=m
New Line.LINE31 Bus1=30 Bus2=32 phases=3 Linecode=4c_.25 Length=13.6295 Units=m
New Line.LINE32 Bus1=30 Bus2=33 phases=3 Linecode=4c_.25 Length=13.6295 Units=m
New Line.LINE33 Bus1=32 Bus2=34 phases=3 Linecode=4c_.25 Length=6.2054 Units=m
New Line.LINE34 Bus1=32 Bus2=35 phases=3 Linecode=4c_.25 Length=6.2054 Units=m
New Line.LINE35 Bus1=34 Bus2=36 phases=3 Linecode=4c_.25 Length=24.2542 Units=m
New Line.LINE36 Bus1=34 Bus2=37 phases=3 Linecode=4c_.25 Length=24.2542 Units=m
New Line.LINE38 Bus1=36 Bus2=39 phases=3 Linecode=4c_.25 Length=3.8026 Units=m
New Line.LINE42 Bus1=41 Bus2=43 phases=3 Linecode=4_XSC Length=0.99378 Units=m
New Line.LINE44 Bus1=41 Bus2=45 phases=3 Linecode=4c_.25 Length=1.2786 Units=m
New Line.LINE47 Bus1=45 Bus2=48 phases=3 Linecode=4c_.25 Length=10.9007 Units=m
New Line.LINE51 Bus1=48 Bus2=52 phases=3 Linecode=4c_.25 Length=22.3647 Units=m
New Line.LINE57 Bus1=52 Bus2=58 phases=3 Linecode=2c_.04 Length=6.0684 Units=m
New Line.LINE75 Bus1=68 Bus2=76 phases=3 Linecode=2c_.04 Length=5.4045 Units=m
New Line.LINE102 Bus1=95 Bus2=103 phases=3 Linecode=2c_.04 Length=5.4849 Units=m
New Line.LINE110 Bus1=101 Bus2=111 phases=3 Linecode=2c_.04 Length=5.5758 Units=m
New Line.LINE147 Bus1=138 Bus2=148 phases=3 Linecode=4c_.25 Length=0.16996 Units=m
New Line.LINE162 Bus1=151 Bus2=163 phases=3 Linecode=2c_.04 Length=5.4563 Units=m
New Line.LINE179 Bus1=170 Bus2=180 phases=3 Linecode=4c_.25 Length=1.0729 Units=m
New Line.LINE199 Bus1=192 Bus2=200 phases=3 Linecode=2c_.04 Length=4.7969 Units=m
New Line.LINE206 Bus1=198 Bus2=207 phases=3 Linecode=2c_.04 Length=5.2358 Units=m
New Line.LINE257 Bus1=252 Bus2=258 phases=3 Linecode=2c_.04 Length=6.7145 Units=m
New Line.LINE278 Bus1=276 Bus2=279 phases=3 Linecode=4c_.25 Length=1.1107 Units=m
New Line.LINE291 Bus1=288 Bus2=292 phases=3 Linecode=2c_.04 Length=5.912 Units=m
New Line.LINE296 Bus1=292 Bus2=297 phases=3 Linecode=2c_.04 Length=4.5102 Units=m
New Line.LINE307 Bus1=302 Bus2=308 phases=3 Linecode=2c_.04 Length=5.127 Units=m
New Line.LINE308 Bus1=302 Bus2=309 phases=3 Linecode=2c_.04 Length=5.127 Units=m
New Line.LINE320 Bus1=316 Bus2=321 phases=3 Linecode=2c_.04 Length=5.9846 Units=m
New Line.LINE326 Bus1=321 Bus2=327 phases=3 Linecode=2c_.04 Length=4.7102 Units=m
New Line.LINE344 Bus1=339 Bus2=345 phases=3 Linecode=2c_.04 Length=4.4045 Units=m
New Line.LINE345 Bus1=339 Bus2=346 phases=3 Linecode=2c_.04 Length=5.6668 Units=m
New Line.LINE346 Bus1=339 Bus2=347 phases=3 Linecode=2c_.04 Length=5.6668 Units=m
New Line.LINE351 Bus1=345 Bus2=352 phases=3 Linecode=2c_.04 Length=3.3834 Units=m
New Line.LINE352 Bus1=345 Bus2=353 phases=3 Linecode=2c_.04 Length=3.3834 Units=m
New Line.LINE362 Bus1=359 Bus2=363 phases=3 Linecode=2c_.04 Length=4.8938 Units=m
New Line.LINE363 Bus1=359 Bus2=364 phases=3 Linecode=2c_.04 Length=4.8938 Units=m
New Line.LINE429 Bus1=424 Bus2=430 phases=3 Linecode=4c_.25 Length=1.9019 Units=m
New Line.LINE456 Bus1=450 Bus2=457 phases=3 Linecode=2c_.04 Length=14.192 Units=m
New Line.LINE467 Bus1=460 Bus2=468 phases=3 Linecode=3c_.04 Length=3.4977 Units=m
New Line.LINE474 Bus1=466 Bus2=475 phases=3 Linecode=3c_.04 Length=4.3701 Units=m
New Line.LINE477 Bus1=470 Bus2=478 phases=3 Linecode=4c_.25 Length=5.3043 Units=m
New Line.LINE510 Bus1=503 Bus2=511 phases=3 Linecode=2c_.04 Length=4.2771 Units=m
New Line.LINE519 Bus1=512 Bus2=520 phases=3 Linecode=2c_.04 Length=3.4915 Units=m
New Line.LINE542 Bus1=536 Bus2=543 phases=3 Linecode=2c_.04 Length=4.1848 Units=m
New Line.LINE543 Bus1=536 Bus2=544 phases=3 Linecode=2c_.04 Length=4.1848 Units=m
New Line.LINE556 Bus1=551 Bus2=557 phases=3 Linecode=4c_.06 Length=4.2076 Units=m
New Line.LINE564 Bus1=557 Bus2=565 phases=3 Linecode=4c_.04 Length=5.6087 Units=m
New Line.LINE570 Bus1=563 Bus2=571 phases=3 Linecode=2c_.04 Length=4.1319 Units=m
New Line.LINE571 Bus1=563 Bus2=572 phases=3 Linecode=2c_.04 Length=4.1319 Units=m
New Line.LINE606 Bus1=596 Bus2=607 phases=3 Linecode=2c_.04 Length=4.5293 Units=m
New Line.LINE613 Bus1=602 Bus2=614 phases=3 Linecode=2c_.04 Length=4.9296 Units=m
New Line.LINE625 Bus1=615 Bus2=626 phases=3 Linecode=2c_.04 Length=4.6955 Units=m
New Line.LINE637 Bus1=627 Bus2=638 phases=3 Linecode=2c_.04 Length=5.7705 Units=m
New Line.LINE642 Bus1=632 Bus2=643 phases=3 Linecode=2c_.04 Length=4.4508 Units=m
New Line.LINE643 Bus1=632 Bus2=644 phases=3 Linecode=2c_.04 Length=4.4508 Units=m
New Line.LINE650 Bus1=639 Bus2=651 phases=3 Linecode=2c_.04 Length=4.8816 Units=m
New Line.LINE654 Bus1=642 Bus2=655 phases=3 Linecode=2c_.04 Length=2.6915 Units=m
New Line.LINE655 Bus1=642 Bus2=656 phases=3 Linecode=2c_.04 Length=2.6915 Units=m
New Line.LINE755 Bus1=748 Bus2=756 phases=3 Linecode=25_SAC_PC Length=3.366 Units=m
New Line.LINE791 Bus1=784 Bus2=792 phases=3 Linecode=2c_.04 Length=4.3451 Units=m
New Line.LINE802 Bus1=797 Bus2=803 phases=3 Linecode=4c_.04 Length=14.7304 Units=m
New Line.LINE849 Bus1=841 Bus2=850 phases=3 Linecode=2c_.04 Length=4.5531 Units=m
New Line.LINE857 Bus1=848 Bus2=858 phases=3 Linecode=2c_.04 Length=3.7162 Units=m
New Line.LINE880 Bus1=873 Bus2=881 phases=3 Linecode=4c_.04 Length=9.6412 Units=m
New Line.LINE922 Bus1=914 Bus2=923 phases=3 Linecode=2c_.04 Length=5.1685 Units=m
New Line.LINE924 Bus1=915 Bus2=925 phases=3 Linecode=2c_.04 Length=5.428 Units=m
New Line.LINE937 Bus1=930 Bus2=938 phases=3 Linecode=.04 Length=9.2308 Units=m
New Line.LINE983 Bus1=976 Bus2=984 phases=3 Linecode=2c_.04 Length=4.3464 Units=m
New Line.LINE985 Bus1=977 Bus2=986 phases=3 Linecode=2c_.04 Length=6.8615 Units=m
New Line.LINE1026 Bus1=1021 Bus2=1027 phases=3 Linecode=2c_.04 Length=2.4303 Units=m
New Line.LINE1036 Bus1=1031 Bus2=1037 phases=3 Linecode=2c_.04 Length=5.6378 Units=m
New Line.LINE1061 Bus1=1057 Bus2=1062 phases=3 Linecode=2c_.04 Length=5.9029 Units=m
New Line.LINE1063 Bus1=1058 Bus2=1064 phases=3 Linecode=2c_.04 Length=5.3273 Units=m
New Line.LINE1070 Bus1=1066 Bus2=1071 phases=3 Linecode=2c_.04 Length=5.1844 Units=m
New Line.LINE1082 Bus1=1078 Bus2=1083 phases=3 Linecode=2c_.04 Length=5.6241 Units=m
New Line.LINE1098 Bus1=1094 Bus2=1099 phases=3 Linecode=2c_.04 Length=4.4391 Units=m
New Line.LINE1102 Bus1=1097 Bus2=1103 phases=3 Linecode=2c_.04 Length=5.9218 Units=m
New Line.LINECmpd_0 Bus1=170 Bus2=276 phases=3 Linecode=4c_.25 Length=16.09089 Units=m
New Line.LINECmpd_1 Bus1=615 Bus2=744 phases=3 Linecode=2c_.04 Length=11.85381 Units=m
New Line.LINECmpd_2 Bus1=276 Bus2=315 phases=3 Linecode=4c_.25 Length=5.468651 Units=m
New Line.LINECmpd_3 Bus1=300 Bus2=339 phases=3 Linecode=2c_.04 Length=11.46834 Units=m
New Line.LINECmpd_4 Bus1=591 Bus2=646 phases=3 Linecode=4c_.06 Length=26.34328 Units=m
New Line.LINECmpd_5 Bus1=1066 Bus2=1122 phases=3 Linecode=2c_.04 Length=12.52257 Units=m
New Line.LINECmpd_6 Bus1=841 Bus2=936 phases=3 Linecode=2c_.04 Length=12.81857 Units=m
New Line.LINECmpd_7 Bus1=288 Bus2=300 phases=3 Linecode=4c_.25 Length=22.6832 Units=m
New Line.LINECmpd_8 Bus1=45 Bus2=252 phases=3 Linecode=2c_.04 Length=14.314232 Units=m
New Line.LINECmpd_9 Bus1=1058 Bus2=1094 phases=3 Linecode=2c_.04 Length=7.41228 Units=m
New Line.LINECmpd_10 Bus1=478 Bus2=596 phases=3 Linecode=2c_.04 Length=17.274963 Units=m
New Line.LINECmpd_11 Bus1=646 Bus2=729 phases=3 Linecode=4c_.06 Length=13.01791 Units=m
New Line.LINECmpd_12 Bus1=709 Bus2=817 phases=3 Linecode=4_XSC Length=3.19271 Units=m
New Line.LINECmpd_13 Bus1=470 Bus2=726 phases=3 Linecode=2c_.007 Length=3.358172 Units=m
New Line.LINECmpd_14 Bus1=566 Bus2=627 phases=3 Linecode=2c_.04 Length=8.09387 Units=m
New Line.LINECmpd_15 Bus1=331 Bus2=383 phases=3 Linecode=4c_.25 Length=30.74332 Units=m
New Line.LINECmpd_16 Bus1=1078 Bus2=1131 phases=3 Linecode=2c_.04 Length=12.92665 Units=m
New Line.LINECmpd_17 Bus1=99 Bus2=280 phases=3 Linecode=2c_.007 Length=3.944112 Units=m
New Line.LINECmpd_18 Bus1=503 Bus2=642 phases=3 Linecode=2c_.04 Length=8.60349 Units=m
New Line.LINECmpd_19 Bus1=192 Bus2=262 phases=3 Linecode=2c_.04 Length=16.44198 Units=m
New Line.LINECmpd_20 Bus1=930 Bus2=1035 phases=3 Linecode=4c_.06 Length=20.80486 Units=m
New Line.LINECmpd_21 Bus1=1057 Bus2=1097 phases=3 Linecode=2c_.04 Length=11.13017 Units=m
New Line.LINECmpd_22 Bus1=148 Bus2=223 phases=3 Linecode=4c_.12 Length=11.87556 Units=m
New Line.LINECmpd_23 Bus1=551 Bus2=566 phases=3 Linecode=4c_.04 Length=13.3284 Units=m
New Line.LINECmpd_24 Bus1=409 Bus2=424 phases=3 Linecode=4c_.25 Length=20.5007 Units=m
New Line.LINECmpd_25 Bus1=596 Bus2=753 phases=3 Linecode=2c_.04 Length=17.739379 Units=m
New Line.LINECmpd_26 Bus1=566 Bus2=639 phases=3 Linecode=2c_.04 Length=5.579113 Units=m
New Line.LINECmpd_27 Bus1=138 Bus2=178 phases=3 Linecode=4c_.25 Length=26.5308 Units=m
New Line.LINECmpd_28 Bus1=41 Bus2=106 phases=3 Linecode=4_XSC Length=1.042404 Units=m
New Line.LINECmpd_29 Bus1=460 Bus2=536 phases=3 Linecode=2c_.04 Length=8.35417 Units=m
New Line.LINECmpd_30 Bus1=602 Bus2=743 phases=3 Linecode=2c_.04 Length=12.55361 Units=m
New Line.LINECmpd_31 Bus1=359 Bus2=445 phases=3 Linecode=2c_.04 Length=17.863558 Units=m
New Line.LINECmpd_32 Bus1=48 Bus2=201 phases=3 Linecode=2c_.007 Length=3.34363 Units=m
New Line.LINECmpd_33 Bus1=938 Bus2=977 phases=3 Linecode=2c_.04 Length=3.53269 Units=m
New Line.LINECmpd_34 Bus1=457 Bus2=503 phases=3 Linecode=2c_.04 Length=2.45067 Units=m
New Line.LINECmpd_35 Bus1=1021 Bus2=1066 phases=3 Linecode=2c_.04 Length=9.28829 Units=m
New Line.LINECmpd_36 Bus1=784 Bus2=887 phases=3 Linecode=2c_.04 Length=12.82035 Units=m
New Line.LINECmpd_37 Bus1=748 Bus2=784 phases=3 Linecode=2c_.04 Length=1.68039 Units=m
New Line.LINECmpd_38 Bus1=639 Bus2=768 phases=3 Linecode=2c_.04 Length=13.265318 Units=m
New Line.LINECmpd_39 Bus1=321 Bus2=374 phases=3 Linecode=2c_.04 Length=13.021109 Units=m
New Line.LINECmpd_40 Bus1=409 Bus2=454 phases=3 Linecode=4_XC Length=1.77798 Units=m
New Line.LINECmpd_41 Bus1=976 Bus2=1039 phases=3 Linecode=2c_.04 Length=13.83188 Units=m
New Line.LINECmpd_42 Bus1=95 Bus2=192 phases=3 Linecode=2c_.04 Length=7.22043 Units=m
New Line.LINECmpd_43 Bus1=391 Bus2=426 phases=3 Linecode=2c_.04 Length=14.29098 Units=m
New Line.LINECmpd_44 Bus1=424 Bus2=551 phases=3 Linecode=4c_.06 Length=25.44466 Units=m
New Line.LINECmpd_45 Bus1=627 Bus2=734 phases=3 Linecode=2c_.04 Length=13.983375 Units=m
New Line.LINECmpd_46 Bus1=292 Bus2=354 phases=3 Linecode=2c_.04 Length=14.93553 Units=m
New Line.LINECmpd_47 Bus1=1035 Bus2=1057 phases=3 Linecode=2c_.04 Length=4.40961 Units=m
New Line.LINECmpd_48 Bus1=36 Bus2=68 phases=3 Linecode=2c_.04 Length=12.772926 Units=m
New Line.LINECmpd_49 Bus1=938 Bus2=976 phases=3 Linecode=2c_.04 Length=2.26856 Units=m
New Line.LINECmpd_50 Bus1=1094 Bus2=1133 phases=3 Linecode=2c_.04 Length=11.244208 Units=m
New Line.LINECmpd_51 Bus1=430 Bus2=473 phases=3 Linecode=4c_.25 Length=1.40948 Units=m
New Line.LINECmpd_52 Bus1=591 Bus2=738 phases=3 Linecode=4_XSC Length=2.106919 Units=m
New Line.LINECmpd_53 Bus1=729 Bus2=839 phases=3 Linecode=4c_.06 Length=22.28137 Units=m
New Line.LINECmpd_54 Bus1=426 Bus2=466 phases=3 Linecode=2c_.04 Length=2.02088 Units=m
New Line.LINECmpd_55 Bus1=839 Bus2=988 phases=3 Linecode=4_XSC Length=3.534494 Units=m
New Line.LINECmpd_56 Bus1=756 Bus2=888 phases=3 Linecode=25_SAC_PC Length=12.791845 Units=m
New Line.LINECmpd_57 Bus1=812 Bus2=954 phases=3 Linecode=4_XSC Length=1.630154 Units=m
New Line.LINECmpd_58 Bus1=565 Bus2=615 phases=3 Linecode=2c_.04 Length=3.30708 Units=m
New Line.LINECmpd_59 Bus1=839 Bus2=873 phases=3 Linecode=4c_.06 Length=5.04086 Units=m
New Line.LINECmpd_60 Bus1=812 Bus2=930 phases=3 Linecode=4c_.06 Length=14.90618 Units=m
New Line.LINECmpd_61 Bus1=279 Bus2=302 phases=3 Linecode=2c_.04 Length=11.10681 Units=m
New Line.LINECmpd_62 Bus1=914 Bus2=989 phases=3 Linecode=2c_.04 Length=10.81534 Units=m
New Line.LINECmpd_63 Bus1=512 Bus2=632 phases=3 Linecode=2c_.04 Length=8.305722 Units=m
New Line.LINECmpd_64 Bus1=58 Bus2=101 phases=3 Linecode=2c_.04 Length=2.4067 Units=m
New Line.LINECmpd_65 Bus1=78 Bus2=99 phases=3 Linecode=4c_.25 Length=12.5132 Units=m
New Line.LINECmpd_66 Bus1=642 Bus2=822 phases=3 Linecode=2c_.04 Length=18.42933 Units=m
New Line.LINECmpd_67 Bus1=78 Bus2=151 phases=3 Linecode=2c_.04 Length=9.07832 Units=m
New Line.LINECmpd_68 Bus1=915 Bus2=995 phases=3 Linecode=2c_.04 Length=12.83773 Units=m
New Line.LINECmpd_69 Bus1=1 Bus2=29 phases=3 Linecode=3c_300_SAC_XC Length=44.000436 Units=m
New Line.LINECmpd_70 Bus1=198 Bus2=273 phases=3 Linecode=2c_.04 Length=14.57739 Units=m
New Line.LINECmpd_71 Bus1=101 Bus2=198 phases=3 Linecode=2c_.04 Length=7.454113 Units=m
New Line.LINECmpd_72 Bus1=996 Bus2=1021 phases=3 Linecode=2c_.04 Length=2.14587 Units=m
New Line.LINECmpd_73 Bus1=557 Bus2=591 phases=3 Linecode=4c_.06 Length=15.1527 Units=m
New Line.LINECmpd_74 Bus1=331 Bus2=359 phases=3 Linecode=2c_.04 Length=11.4613 Units=m
New Line.LINECmpd_75 Bus1=977 Bus2=1040 phases=3 Linecode=2c_.04 Length=13.54079 Units=m
New Line.LINECmpd_76 Bus1=115 Bus2=138 phases=3 Linecode=4c_.25 Length=23.9687 Units=m
New Line.LINECmpd_77 Bus1=1031 Bus2=1078 phases=3 Linecode=2c_.04 Length=10.31151 Units=m
New Line.LINECmpd_78 Bus1=457 Bus2=512 phases=3 Linecode=2c_.04 Length=2.614397 Units=m
New Line.LINECmpd_79 Bus1=881 Bus2=914 phases=3 Linecode=2c_.04 Length=3.2694 Units=m
New Line.LINECmpd_80 Bus1=148 Bus2=170 phases=3 Linecode=4c_.25 Length=22.0155 Units=m
New Line.LINECmpd_81 Bus1=756 Bus2=793 phases=3 Linecode=2c_.04 Length=6.33168 Units=m
New Line.LINECmpd_82 Bus1=873 Bus2=996 phases=3 Linecode=4c_.04 Length=19.77659 Units=m
New Line.LINECmpd_83 Bus1=252 Bus2=267 phases=3 Linecode=2c_.04 Length=10.56562 Units=m
New Line.LINECmpd_84 Bus1=426 Bus2=460 phases=3 Linecode=2c_.04 Length=2.23389 Units=m
New Line.LINECmpd_85 Bus1=848 Bus2=953 phases=3 Linecode=2c_.04 Length=13.02534 Units=m
New Line.LINECmpd_86 Bus1=279 Bus2=288 phases=3 Linecode=4c_.25 Length=14.0518 Units=m
New Line.LINECmpd_87 Bus1=383 Bus2=391 phases=3 Linecode=4c_.25 Length=25.2208 Units=m
New Line.LINECmpd_88 Bus1=466 Bus2=563 phases=3 Linecode=2c_.04 Length=8.05016 Units=m
New Line.LINECmpd_89 Bus1=391 Bus2=399 phases=3 Linecode=4c_.25 Length=10.2943 Units=m
New Line.LINECmpd_90 Bus1=52 Bus2=78 phases=3 Linecode=4c_.25 Length=29.8061 Units=m
New Line.LINECmpd_91 Bus1=709 Bus2=797 phases=3 Linecode=4c_.06 Length=10.47066 Units=m
New Line.LINECmpd_92 Bus1=803 Bus2=848 phases=3 Linecode=2c_.04 Length=2.69254 Units=m
New Line.LINECmpd_93 Bus1=399 Bus2=427 phases=3 Linecode=2c_.007 Length=1.56604 Units=m
New Line.LINECmpd_94 Bus1=646 Bus2=709 phases=3 Linecode=4c_.06 Length=5.46057 Units=m
New Line.LINECmpd_95 Bus1=383 Bus2=405 phases=3 Linecode=2c_.04 Length=14.83321 Units=m
New Line.LINECmpd_96 Bus1=1097 Bus2=1129 phases=3 Linecode=2c_.04 Length=13.02313 Units=m
New Line.LINECmpd_97 Bus1=996 Bus2=1031 phases=3 Linecode=2c_.04 Length=5.037589 Units=m
New Line.LINECmpd_98 Bus1=729 Bus2=748 phases=3 Linecode=4c_.04 Length=14.7998 Units=m
New Line.LINECmpd_99 Bus1=151 Bus2=173 phases=3 Linecode=2c_.04 Length=8.9464 Units=m
New Line.LINECmpd_100 Bus1=302 Bus2=341 phases=3 Linecode=2c_.04 Length=14.77645 Units=m
New Line.LINECmpd_101 Bus1=565 Bus2=602 phases=3 Linecode=2c_.04 Length=5.76895 Units=m
New Line.LINECmpd_102 Bus1=430 Bus2=450 phases=3 Linecode=4c_.25 Length=26.9536 Units=m
New Line.LINECmpd_103 Bus1=881 Bus2=915 phases=3 Linecode=2c_.04 Length=3.44817 Units=m
New Line.LINECmpd_104 Bus1=99 Bus2=115 phases=3 Linecode=4c_.25 Length=10.729 Units=m
New Line.LINECmpd_105 Bus1=138 Bus2=179 phases=3 Linecode=4c_.25 Length=26.5497 Units=m
New Line.LINECmpd_106 Bus1=58 Bus2=95 phases=3 Linecode=2c_.04 Length=7.54919 Units=m
New Line.LINECmpd_107 Bus1=450 Bus2=470 phases=3 Linecode=4c_.25 Length=26.3591 Units=m
New Line.LINECmpd_108 Bus1=115 Bus2=160 phases=3 Linecode=4c_.25 Length=0.647896 Units=m
New Line.LINECmpd_109 Bus1=316 Bus2=331 phases=3 Linecode=4c_.25 Length=23.1557 Units=m
New Line.LINECmpd_110 Bus1=300 Bus2=316 phases=3 Linecode=4c_.25 Length=14.6489 Units=m
New Line.LINECmpd_111 Bus1=803 Bus2=841 phases=3 Linecode=2c_.04 Length=5.28008 Units=m
New Line.LINECmpd_112 Bus1=68 Bus2=83 phases=3 Linecode=2c_.04 Length=10.6066 Units=m
New Line.LINECmpd_113 Bus1=478 Bus2=493 phases=3 Linecode=4c_.25 Length=6.7756 Units=m
New Line.LINECmpd_114 Bus1=797 Bus2=812 phases=3 Linecode=4c_.06 Length=13.6326 Units=m
New Line.LINECmpd_115 Bus1=1035 Bus2=1058 phases=3 Linecode=2c_.04 Length=3.08325 Units=m
New Line.LINECmpd_116 Bus1=399 Bus2=409 phases=3 Linecode=4c_.25 Length=18.3557 Units=m
New Line.LINECmpd_117 Bus1=36 Bus2=41 phases=3 Linecode=4c_.25 Length=17.0096 Units=m
